======================================================================
TIBETAN TEXT NORMALIZATION - INFERENCE REPORT
======================================================================

RUN INFORMATION
----------------------------------------------------------------------
Date/Time:        2026-01-09 22:29:06
Mode:             rules
Device:           cuda
Random Seed:      42

INPUT/OUTPUT
----------------------------------------------------------------------
Input file:       GoldTest_source-tok.txt
Output file:      GoldTest_source-tok_predictions-1-rules.txt
Number of lines:  217

RULES INFORMATION
----------------------------------------------------------------------
Dictionary path:  abbreviations.txt
Abbreviations:    8469

PARAMETERS
----------------------------------------------------------------------

PERFORMANCE
----------------------------------------------------------------------
Total time:       0.13s (0.00m)
Speed:            1625.98 lines/second

======================================================================
Report generated: 2026-01-09 22:29:06
======================================================================
